<?xml version="1.0" encoding="UTF-8"?>

<!-- generated on Mi 06 Apr 2022 15:39:04 CEST by Eclipse SUMO netedit Version 1.4.0
<configuration xmlns:xsi="http://www.w3.org/2001/XMLSchema-instance" xsi:noNamespaceSchemaLocation="http://sumo.dlr.de/xsd/netconvertConfiguration.xsd">

    <input>
        <sumo-net-file value="/home2/zhihao.li/carla-rss/Co-Simulation/Sumo/examples/hbf/hbf.net.xml"/>
    </input>

    <output>
        <output-file value="/home2/zhihao.li/carla-rss/Co-Simulation/Sumo/examples/hbf/hbf.net.xml"/>
    </output>

    <processing>
        <geometry.min-radius.fix.railways value="false"/>
        <geometry.max-grade.fix value="false"/>
        <offset.disable-normalization value="true"/>
        <lefthand value="false"/>
    </processing>

    <junctions>
        <no-turnarounds value="true"/>
        <junctions.corner-detail value="5"/>
        <junctions.limit-turn-speed value="5.5"/>
        <rectangular-lane-cut value="true"/>
    </junctions>

    <pedestrian>
        <walkingareas value="false"/>
    </pedestrian>

    <netedit>
        <route-files value="/home2/zhihao.li/carla-rss/Co-Simulation/Sumo/examples/hbf/hbf_original.rou.xml"/>
    </netedit>

    <report>
        <aggregate-warnings value="5"/>
    </report>

</configuration>
-->

<net version="1.3" junctionCornerDetail="5" rectangularLaneCut="true" limitTurnSpeed="5.50" xmlns:xsi="http://www.w3.org/2001/XMLSchema-instance" xsi:noNamespaceSchemaLocation="http://sumo.dlr.de/xsd/net_file.xsd">

    <location netOffset="-858761.04,-5398347.61" convBoundary="0.00,0.00,1977.24,1373.86" origBoundary="0.00,0.00,0.00,0.00" projParameter="+proj=tmerc          "/>

    <type id="bidirectional" priority="1" speed="1.39" disallow="pedestrian tram rail_urban rail rail_electric rail_fast ship" width="3.65"/>
    <type id="biking" priority="-1" speed="5.56" allow="bicycle" width="1.50"/>
    <type id="border" priority="0" speed="1.39" disallow="all" discard="1" width="0.10"/>
    <type id="driving" priority="1" speed="13.89" disallow="pedestrian tram rail_urban rail rail_electric rail_fast ship" width="3.65"/>
    <type id="entry" priority="1" speed="22.22" disallow="pedestrian tram rail_urban rail rail_electric rail_fast ship" width="3.65"/>
    <type id="exit" priority="1" speed="22.22" disallow="pedestrian tram rail_urban rail rail_electric rail_fast ship" width="3.65"/>
    <type id="median" priority="0" speed="1.39" disallow="all" discard="1" width="0.10"/>
    <type id="mwyEntry" priority="1" speed="22.22" allow="private emergency authority army vip passenger hov taxi bus coach delivery truck trailer motorcycle evehicle custom1 custom2" width="3.65"/>
    <type id="mwyExit" priority="1" speed="22.22" allow="private emergency authority army vip passenger hov taxi bus coach delivery truck trailer motorcycle evehicle custom1 custom2" width="3.65"/>
    <type id="none" priority="0" speed="1.39" disallow="all" discard="1" width="1.00"/>
    <type id="offRamp" priority="1" speed="22.22" allow="private emergency authority army vip passenger hov taxi bus coach delivery truck trailer motorcycle evehicle custom1 custom2" width="3.65"/>
    <type id="onRamp" priority="1" speed="22.22" allow="private emergency authority army vip passenger hov taxi bus coach delivery truck trailer motorcycle evehicle custom1 custom2" width="3.65"/>
    <type id="parking" priority="1" speed="1.39" disallow="pedestrian tram rail_urban rail rail_electric rail_fast ship" width="2.50"/>
    <type id="rail" priority="3" speed="33.33" allow="rail_urban rail rail_electric rail_fast" width="3.65"/>
    <type id="restricted" priority="0" speed="13.89" disallow="all" width="3.65"/>
    <type id="roadWorks" priority="0" speed="1.39" allow="authority" width="3.65"/>
    <type id="shoulder" priority="0" speed="1.39" disallow="all" discard="1" width="1.00"/>
    <type id="sidewalk" priority="-2" speed="2.78" allow="pedestrian" width="2.50"/>
    <type id="special1" priority="1" speed="22.22" allow="custom1" discard="1" width="3.65"/>
    <type id="special2" priority="1" speed="22.22" allow="custom2" discard="1" width="3.65"/>
    <type id="special3" priority="1" speed="22.22" allow="custom1 custom2" discard="1" width="3.65"/>
    <type id="stop" priority="1" speed="13.89" disallow="pedestrian tram rail_urban rail rail_electric rail_fast ship" width="3.65"/>
    <type id="tram" priority="2" speed="13.89" allow="tram" width="3.65"/>

    <edge id=":1_0" function="internal">
        <lane id=":1_0_0" index="0" disallow="pedestrian tram rail_urban rail rail_electric rail_fast ship" speed="7.50" length="11.57" width="6.00" shape="1441.94,1052.70 1440.73,1049.69 1438.90,1047.80 1436.43,1047.03 1433.34,1047.37">
            <param key="origId" value="2919_-1"/>
        </lane>
    </edge>
    <edge id=":1_1" function="internal">
        <lane id=":1_1_0" index="0" disallow="pedestrian tram rail_urban rail rail_electric rail_fast ship" speed="13.89" length="21.13" width="6.00" shape="1441.94,1052.70 1441.37,1048.06 1441.29,1042.20 1441.38,1036.32 1441.33,1031.60">
            <param key="origId" value="2920_-1"/>
        </lane>
    </edge>
    <edge id=":1_2" function="internal">
        <lane id=":1_2_0" index="0" disallow="pedestrian tram rail_urban rail rail_electric rail_fast ship" speed="5.00" length="8.76" width="6.00" shape="1441.94,1052.70 1442.85,1050.15 1444.12,1049.06 1445.76,1049.42 1447.76,1051.24">
            <param key="origId" value="2921_-1"/>
        </lane>
    </edge>
    <edge id=":1_3" function="internal">
        <lane id=":1_3_0" index="0" disallow="pedestrian tram rail_urban rail rail_electric rail_fast ship" speed="7.46" length="11.31" width="6.00" shape="1452.88,1042.74 1450.00,1043.91 1448.19,1045.72 1447.44,1048.16 1447.76,1051.24">
            <param key="origId" value="2922_-1"/>
        </lane>
    </edge>
    <edge id=":1_4" function="internal">
        <lane id=":1_4_0" index="0" disallow="pedestrian tram rail_urban rail rail_electric rail_fast ship" speed="8.33" length="20.07" width="6.00" shape="1452.88,1042.74 1433.34,1047.37">
            <param key="origId" value="2923_-1"/>
        </lane>
    </edge>
    <edge id=":1_5" function="internal">
        <lane id=":1_5_0" index="0" disallow="pedestrian tram rail_urban rail rail_electric rail_fast ship" speed="7.62" length="13.55" width="6.00" shape="1451.43,1036.92 1447.18,1037.49 1444.08,1036.79 1442.13,1034.83 1441.33,1031.60">
            <param key="origId" value="2924_-1"/>
        </lane>
    </edge>
    <edge id=":1_6" function="internal">
        <lane id=":1_6_0" index="0" disallow="pedestrian tram rail_urban rail rail_electric rail_fast ship" speed="9.11" length="15.05" width="6.00" shape="1431.80,1041.58 1436.13,1039.96 1439.16,1037.76 1440.90,1034.97 1441.33,1031.60">
            <param key="origId" value="2925_-1"/>
        </lane>
    </edge>
    <edge id=":1_7" function="internal">
        <lane id=":1_7_0" index="0" disallow="pedestrian tram rail_urban rail rail_electric rail_fast ship" speed="9.85" length="21.34" width="6.00" shape="1431.80,1041.58 1437.56,1040.91 1442.13,1042.30 1445.54,1045.74 1447.76,1051.24">
            <param key="origId" value="2926_-1"/>
        </lane>
    </edge>
    <edge id=":1_8" function="internal">
        <lane id=":1_8_0" index="0" disallow="pedestrian tram rail_urban rail rail_electric rail_fast ship" speed="5.00" length="8.76" width="6.00" shape="1431.80,1041.58 1434.36,1042.45 1435.47,1043.70 1435.13,1045.35 1433.34,1047.37">
            <param key="origId" value="2927_-1"/>
        </lane>
    </edge>
    <edge id=":10_0" function="internal">
        <lane id=":10_0_0" index="0" disallow="pedestrian tram rail_urban rail rail_electric rail_fast ship" speed="7.33" length="11.40" width="6.00" shape="1840.49,714.69 1837.58,715.91 1835.83,717.76 1835.23,720.23 1835.80,723.34">
            <param key="origId" value="3245_-1"/>
        </lane>
    </edge>
    <edge id=":10_1" function="internal">
        <lane id=":10_1_0" index="0" disallow="pedestrian tram rail_urban rail rail_electric rail_fast ship" speed="8.33" length="14.07" width="6.00" shape="1840.49,714.69 1826.91,718.35">
            <param key="origId" value="3246_-1"/>
        </lane>
    </edge>
    <edge id=":10_2" function="internal">
        <lane id=":10_2_0" index="0" disallow="pedestrian tram rail_urban rail rail_electric rail_fast ship" speed="8.33" length="14.20" width="6.00" shape="1825.27,712.57 1838.99,708.89">
            <param key="origId" value="3247_-1"/>
        </lane>
    </edge>
    <edge id=":10_3" function="internal">
        <lane id=":10_3_0" index="0" disallow="pedestrian tram rail_urban rail rail_electric rail_fast ship" speed="8.33" length="6.00" width="6.00" shape="1825.27,712.57 1828.30,712.57 1830.80,714.19">
            <param key="origId" value="3248_-1"/>
        </lane>
    </edge>
    <edge id=":10_4" function="internal">
        <lane id=":10_4_0" index="0" disallow="pedestrian tram rail_urban rail rail_electric rail_fast ship" speed="5.00" length="4.38" width="6.00" shape="1825.27,712.57 1827.85,713.40 1828.98,714.64">
            <param key="origId" value="3249_-1"/>
        </lane>
    </edge>
    <edge id=":10_5" function="internal">
        <lane id=":10_5_0" index="0" disallow="pedestrian tram rail_urban rail rail_electric rail_fast ship" speed="8.33" length="10.52" width="6.00" shape="1830.80,714.19 1831.07,714.37 1833.56,717.96 1835.80,723.34">
            <param key="origId" value="3248_-1"/>
        </lane>
    </edge>
    <edge id=":10_6" function="internal">
        <lane id=":10_6_0" index="0" disallow="pedestrian tram rail_urban rail rail_electric rail_fast ship" speed="5.00" length="4.38" width="6.00" shape="1828.98,714.64 1828.66,716.29 1826.91,718.35">
            <param key="origId" value="3249_-1"/>
        </lane>
    </edge>
    <edge id=":100_0" function="internal">
        <lane id=":100_0_0" index="0" disallow="pedestrian tram rail_urban rail rail_electric rail_fast ship" speed="8.11" length="13.71" width="6.00" shape="1118.13,473.92 1115.02,474.23 1112.66,475.86 1111.05,478.81 1110.19,483.09">
            <param key="origId" value="3015_-1"/>
        </lane>
    </edge>
    <edge id=":100_1" function="internal">
        <lane id=":100_1_0" index="0" disallow="pedestrian tram rail_urban rail rail_electric rail_fast ship" speed="8.33" length="20.16" width="6.00" shape="1118.13,473.92 1113.58,473.93 1108.06,474.38 1102.54,474.81 1098.00,474.77">
            <param key="origId" value="3016_-1"/>
        </lane>
    </edge>
    <edge id=":100_2" function="internal">
        <lane id=":100_2_0" index="0" disallow="pedestrian tram rail_urban rail rail_electric rail_fast ship" speed="8.33" length="7.80" width="6.00" shape="1098.70,468.81 1104.20,470.26 1105.87,471.54">
            <param key="origId" value="3017_-1"/>
        </lane>
    </edge>
    <edge id=":100_4" function="internal">
        <lane id=":100_4_0" index="0" disallow="pedestrian tram rail_urban rail rail_electric rail_fast ship" speed="8.33" length="13.02" width="6.00" shape="1105.87,471.54 1107.95,473.12 1109.94,477.40 1110.19,483.09">
            <param key="origId" value="3017_-1"/>
        </lane>
    </edge>
    <edge id=":100_3" function="internal">
        <lane id=":100_3_0" index="0" disallow="pedestrian tram rail_urban rail rail_electric rail_fast ship" speed="7.50" length="11.26" width="6.00" shape="1104.21,482.49 1104.08,479.42 1103.00,477.10 1100.98,475.55 1098.00,474.77">
            <param key="origId" value="3018_-1"/>
        </lane>
    </edge>
    <edge id=":101_0" function="internal">
        <lane id=":101_0_0" index="0" disallow="pedestrian tram rail_urban rail rail_electric rail_fast ship" speed="7.94" length="1.17" width="6.00" shape="1021.57,465.84 1020.51,465.35">
            <param key="origId" value="2912_-1"/>
        </lane>
    </edge>
    <edge id=":101_3" function="internal">
        <lane id=":101_3_0" index="0" disallow="pedestrian tram rail_urban rail rail_electric rail_fast ship" speed="7.94" length="11.33" width="6.00" shape="1020.51,465.35 1019.66,464.97 1018.39,462.86 1017.76,459.54 1017.77,454.98">
            <param key="origId" value="2912_-1"/>
        </lane>
    </edge>
    <edge id=":101_1" function="internal">
        <lane id=":101_1_0" index="0" disallow="pedestrian tram rail_urban rail rail_electric rail_fast ship" speed="8.33" length="14.93" width="6.00" shape="1016.61,469.86 1017.77,454.98">
            <param key="origId" value="2913_-1"/>
        </lane>
    </edge>
    <edge id=":101_2" function="internal">
        <lane id=":101_2_0" index="0" disallow="pedestrian tram rail_urban rail rail_electric rail_fast ship" speed="7.77" length="12.62" width="6.00" shape="1016.61,469.86 1017.33,465.29 1018.51,462.10 1020.16,460.30 1022.27,459.88">
            <param key="origId" value="2914_-1"/>
        </lane>
    </edge>
    <edge id=":102_0" function="internal">
        <lane id=":102_0_0" index="0" disallow="pedestrian tram rail_urban rail rail_electric rail_fast ship" speed="5.00" length="8.76" width="6.00" shape="785.52,1220.80 783.38,1222.45 781.72,1222.68 780.54,1221.49 779.84,1218.88">
            <param key="origId" value="2775_-1"/>
        </lane>
    </edge>
    <edge id=":103_0" function="internal">
        <lane id=":103_0_0" index="0" disallow="pedestrian tram rail_urban rail rail_electric rail_fast ship" speed="5.00" length="8.76" width="6.00" shape="205.69,104.19 203.48,102.64 202.76,101.12 203.55,99.64 205.83,98.19">
            <param key="origId" value="2686_-1"/>
        </lane>
    </edge>
    <edge id=":104_0" function="internal">
        <lane id=":104_0_0" index="0" disallow="pedestrian tram rail_urban rail rail_electric rail_fast ship" speed="13.89" length="47.86" width="6.00" shape="286.35,91.63 279.62,96.09 268.83,104.82 257.48,114.44 249.06,121.56">
            <param key="origId" value="2984_-1"/>
        </lane>
    </edge>
    <edge id=":104_1" function="internal">
        <lane id=":104_1_0" index="0" disallow="pedestrian tram rail_urban rail rail_electric rail_fast ship" speed="13.89" length="51.41" width="6.00" shape="286.35,91.63 278.14,95.02 263.94,100.97 248.77,106.78 237.61,109.74">
            <param key="origId" value="2985_-1"/>
        </lane>
        <lane id=":104_1_1" index="1" disallow="pedestrian tram rail_urban rail rail_electric rail_fast ship" speed="13.89" length="51.41" width="6.00" shape="286.35,91.63 278.06,94.09 263.69,97.98 248.34,101.74 237.11,103.76">
            <param key="origId" value="2986_-1"/>
        </lane>
    </edge>
    <edge id=":104_3" function="internal">
        <lane id=":104_3_0" index="0" disallow="pedestrian tram rail_urban rail rail_electric rail_fast ship" speed="13.89" length="48.60" width="6.00" shape="236.09,91.80 246.22,90.11 259.48,86.93 272.65,83.31 282.50,80.27">
            <param key="origId" value="2987_-2"/>
        </lane>
        <lane id=":104_3_1" index="1" disallow="pedestrian tram rail_urban rail rail_electric rail_fast ship" speed="13.89" length="48.60" width="6.00" shape="236.59,97.78 246.93,96.04 260.69,92.76 274.36,89.04 284.43,85.95">
            <param key="origId" value="2987_-1"/>
        </lane>
    </edge>
    <edge id=":104_5" function="internal">
        <lane id=":104_5_0" index="0" disallow="pedestrian tram rail_urban rail rail_electric rail_fast ship" speed="8.76" length="7.83" width="6.00" shape="236.59,97.78 244.12,99.33 244.21,99.43">
            <param key="origId" value="2988_-1"/>
        </lane>
    </edge>
    <edge id=":104_6" function="internal">
        <lane id=":104_6_0" index="0" disallow="pedestrian tram rail_urban rail rail_electric rail_fast ship" speed="5.00" length="4.07" width="6.00" shape="236.59,97.78 238.96,99.08 239.67,100.25">
            <param key="origId" value="2989_-1"/>
        </lane>
    </edge>
    <edge id=":104_7" function="internal">
        <lane id=":104_7_0" index="0" disallow="pedestrian tram rail_urban rail rail_electric rail_fast ship" speed="8.76" length="20.49" width="6.00" shape="244.21,99.43 248.67,104.22 249.35,110.67 245.26,116.91">
            <param key="origId" value="2988_-1"/>
        </lane>
    </edge>
    <edge id=":104_8" function="internal">
        <lane id=":104_8_0" index="0" disallow="pedestrian tram rail_urban rail rail_electric rail_fast ship" speed="5.00" length="4.69" width="6.00" shape="239.67,100.25 239.83,100.51 239.22,102.07 237.11,103.76">
            <param key="origId" value="2989_-1"/>
        </lane>
    </edge>
    <edge id=":105_0" function="internal">
        <lane id=":105_0_0" index="0" disallow="pedestrian tram rail_urban rail rail_electric rail_fast ship" speed="7.46" length="11.30" width="6.00" shape="329.86,297.39 326.76,297.43 324.42,298.45 322.84,300.45 322.02,303.44">
            <param key="origId" value="3043_-1"/>
        </lane>
    </edge>
    <edge id=":105_1" function="internal">
        <lane id=":105_1_0" index="0" disallow="pedestrian tram rail_urban rail rail_electric rail_fast ship" speed="11.11" length="21.07" width="6.00" shape="329.86,297.39 323.40,295.59 318.48,292.84 314.50,290.20 310.84,288.73">
            <param key="origId" value="3044_-1"/>
        </lane>
    </edge>
    <edge id=":105_2" function="internal">
        <lane id=":105_2_0" index="0" disallow="pedestrian tram rail_urban rail rail_electric rail_fast ship" speed="5.00" length="8.76" width="6.00" shape="330.64,291.44 328.60,289.66 328.06,288.08 328.99,286.69 331.42,285.50">
            <param key="origId" value="3045_-1"/>
        </lane>
    </edge>
    <edge id=":105_3" function="internal">
        <lane id=":105_3_0" index="0" disallow="pedestrian tram rail_urban rail rail_electric rail_fast ship" speed="8.15" length="13.83" width="6.00" shape="323.15,271.30 323.38,274.42 324.96,276.83 327.90,278.54 332.20,279.55">
            <param key="origId" value="3046_-1"/>
        </lane>
    </edge>
    <edge id=":105_4" function="internal">
        <lane id=":105_4_0" index="0" disallow="pedestrian tram rail_urban rail rail_electric rail_fast ship" speed="11.11" length="32.16" width="6.00" shape="323.15,271.30 322.79,277.72 322.58,287.37 322.37,297.02 322.02,303.44">
            <param key="origId" value="3047_-1"/>
        </lane>
    </edge>
    <edge id=":105_5" function="internal">
        <lane id=":105_5_0" index="0" disallow="pedestrian tram rail_urban rail rail_electric rail_fast ship" speed="10.35" length="23.73" width="6.00" shape="323.15,271.30 321.46,279.45 318.84,285.08 315.30,288.17 310.84,288.73">
            <param key="origId" value="3048_-1"/>
        </lane>
    </edge>
    <edge id=":105_6" function="internal">
        <lane id=":105_6_0" index="0" disallow="pedestrian tram rail_urban rail rail_electric rail_fast ship" speed="11.11" length="19.92" width="6.00" shape="311.68,282.79 331.42,285.50">
            <param key="origId" value="3049_-1"/>
        </lane>
    </edge>
    <edge id=":105_7" function="internal">
        <lane id=":105_7_0" index="0" disallow="pedestrian tram rail_urban rail rail_electric rail_fast ship" speed="10.89" length="25.97" width="6.00" shape="311.68,282.79 317.10,284.76 320.63,288.86 322.27,295.09 322.02,303.44">
            <param key="origId" value="3050_-1"/>
        </lane>
    </edge>
    <edge id=":105_8" function="internal">
        <lane id=":105_8_0" index="0" disallow="pedestrian tram rail_urban rail rail_electric rail_fast ship" speed="5.00" length="5.07" width="6.00" shape="311.68,282.79 313.70,284.59 314.23,286.18 313.84,286.75">
            <param key="origId" value="3051_-1"/>
        </lane>
    </edge>
    <edge id=":105_12" function="internal">
        <lane id=":105_12_0" index="0" disallow="pedestrian tram rail_urban rail rail_electric rail_fast ship" speed="5.00" length="3.69" width="6.00" shape="313.84,286.75 313.27,287.56 310.84,288.73">
            <param key="origId" value="3051_-1"/>
        </lane>
    </edge>
    <edge id=":105_9" function="internal">
        <lane id=":105_9_0" index="0" disallow="pedestrian tram rail_urban rail rail_electric rail_fast ship" speed="8.86" length="16.51" width="6.00" shape="316.06,302.68 316.36,296.95 315.58,292.71 313.74,289.97 310.84,288.73">
            <param key="origId" value="3052_-1"/>
        </lane>
    </edge>
    <edge id=":105_10" function="internal">
        <lane id=":105_10_0" index="0" disallow="pedestrian tram rail_urban rail rail_electric rail_fast ship" speed="10.83" length="9.88" width="6.00" shape="316.06,302.68 317.93,294.52 318.67,293.21">
            <param key="origId" value="3053_-1"/>
        </lane>
    </edge>
    <edge id=":105_11" function="internal">
        <lane id=":105_11_0" index="0" disallow="pedestrian tram rail_urban rail rail_electric rail_fast ship" speed="5.00" length="4.06" width="6.00" shape="316.06,302.68 317.84,300.64 319.11,300.19">
            <param key="origId" value="3054_-1"/>
        </lane>
    </edge>
    <edge id=":105_13" function="internal">
        <lane id=":105_13_0" index="0" disallow="pedestrian tram rail_urban rail rail_electric rail_fast ship" speed="10.83" length="16.16" width="6.00" shape="318.67,293.21 321.11,288.94 325.61,285.93 331.42,285.50">
            <param key="origId" value="3053_-1"/>
        </lane>
    </edge>
    <edge id=":105_14" function="internal">
        <lane id=":105_14_0" index="0" disallow="pedestrian tram rail_urban rail rail_electric rail_fast ship" speed="5.00" length="4.71" width="6.00" shape="319.11,300.19 319.42,300.08 320.81,301.02 322.02,303.44">
            <param key="origId" value="3054_-1"/>
        </lane>
    </edge>
    <edge id=":106_0" function="internal">
        <lane id=":106_0_0" index="0" disallow="pedestrian tram rail_urban rail rail_electric rail_fast ship" speed="8.33" length="19.63" width="6.00" shape="1043.48,261.01 1024.05,258.17">
            <param key="origId" value="3091_-1"/>
        </lane>
    </edge>
    <edge id=":106_1" function="internal">
        <lane id=":106_1_0" index="0" disallow="pedestrian tram rail_urban rail rail_electric rail_fast ship" speed="8.33" length="16.38" width="6.00" shape="1043.48,261.01 1038.05,259.78 1034.25,257.89 1032.07,255.36 1031.51,252.18">
            <param key="origId" value="3092_-1"/>
        </lane>
    </edge>
    <edge id=":106_2" function="internal">
        <lane id=":106_2_0" index="0" disallow="pedestrian tram rail_urban rail rail_electric rail_fast ship" speed="8.33" length="5.15" width="6.00" shape="1037.49,252.60 1036.45,255.75 1034.99,256.86">
            <param key="origId" value="3093_-1"/>
        </lane>
    </edge>
    <edge id=":106_3" function="internal">
        <lane id=":106_3_0" index="0" disallow="pedestrian tram rail_urban rail rail_electric rail_fast ship" speed="5.00" length="3.96" width="6.00" shape="1037.49,252.60 1035.84,254.74 1034.68,255.22">
            <param key="origId" value="3094_-1"/>
        </lane>
    </edge>
    <edge id=":106_6" function="internal">
        <lane id=":106_6_0" index="0" disallow="pedestrian tram rail_urban rail rail_electric rail_fast ship" speed="8.33" length="11.32" width="6.00" shape="1034.99,256.86 1033.87,257.73 1029.73,258.53 1024.05,258.17">
            <param key="origId" value="3093_-1"/>
        </lane>
    </edge>
    <edge id=":106_7" function="internal">
        <lane id=":106_7_0" index="0" disallow="pedestrian tram rail_urban rail rail_electric rail_fast ship" speed="5.00" length="4.81" width="6.00" shape="1034.68,255.22 1034.29,255.38 1032.84,254.53 1031.51,252.18">
            <param key="origId" value="3094_-1"/>
        </lane>
    </edge>
    <edge id=":106_4" function="internal">
        <lane id=":106_4_0" index="0" disallow="pedestrian tram rail_urban rail rail_electric rail_fast ship" speed="8.33" length="13.98" width="6.00" shape="1033.32,266.56 1032.99,263.43 1031.34,261.00 1028.36,259.24 1024.05,258.17">
            <param key="origId" value="3095_-1"/>
        </lane>
    </edge>
    <edge id=":106_5" function="internal">
        <lane id=":106_5_0" index="0" disallow="pedestrian tram rail_urban rail rail_electric rail_fast ship" speed="8.33" length="14.54" width="6.00" shape="1033.32,266.56 1033.19,262.91 1032.46,259.37 1031.71,255.83 1031.51,252.18">
            <param key="origId" value="3096_-1"/>
        </lane>
    </edge>
    <edge id=":107_0" function="internal">
        <lane id=":107_0_0" index="0" disallow="pedestrian tram rail_urban rail rail_electric rail_fast ship" speed="5.00" length="8.76" width="6.00" shape="1051.22,0.77 1052.97,-1.28 1054.55,-1.85 1055.95,-0.93 1057.17,1.48">
            <param key="origId" value="3160_-1"/>
        </lane>
    </edge>
    <edge id=":108_0" function="internal">
        <lane id=":108_0_0" index="0" disallow="pedestrian tram rail_urban rail rail_electric rail_fast ship" speed="13.89" length="9.29" width="6.00" shape="235.95,278.02 233.23,278.52 231.61,280.26 229.98,282.02 227.25,282.57">
            <param key="origId" value="3194_-1"/>
        </lane>
        <lane id=":108_0_1" index="1" disallow="pedestrian tram rail_urban rail rail_electric rail_fast ship" speed="13.89" length="9.29" width="6.00" shape="235.95,278.02 233.54,277.99 231.86,278.42 230.19,278.79 227.81,278.57">
            <param key="origId" value="3195_-1"/>
        </lane>
    </edge>
    <edge id=":108_2" function="internal">
        <lane id=":108_2_0" index="0" disallow="pedestrian tram rail_urban rail rail_electric rail_fast ship" speed="13.89" length="10.57" width="6.00" shape="229.69,265.03 232.20,266.32 233.25,268.55 234.30,270.78 236.81,272.08">
            <param key="origId" value="3196_-1"/>
        </lane>
    </edge>
    <edge id=":109_0" function="internal">
        <lane id=":109_0_0" index="0" disallow="pedestrian tram rail_urban rail rail_electric rail_fast ship" speed="5.00" length="8.76" width="6.00" shape="556.46,1279.64 555.49,1282.17 554.19,1283.23 552.56,1282.82 550.61,1280.96">
            <param key="origId" value="3023_-1"/>
        </lane>
    </edge>
    <edge id=":11_0" function="internal">
        <lane id=":11_0_0" index="0" disallow="pedestrian tram rail_urban rail rail_electric rail_fast ship" speed="5.00" length="8.76" width="6.00" shape="1885.13,696.96 1887.68,697.84 1888.78,699.11 1888.43,700.75 1886.63,702.76"/>
    </edge>
    <edge id=":110_0" function="internal">
        <lane id=":110_0_0" index="0" disallow="pedestrian tram rail_urban rail rail_electric rail_fast ship" speed="7.46" length="12.74" width="6.00" shape="530.43,1070.84 529.40,1067.13 527.63,1064.81 525.12,1063.90 521.86,1064.38">
            <param key="origId" value="3007_-1"/>
        </lane>
    </edge>
    <edge id=":110_1" function="internal">
        <lane id=":110_1_0" index="0" disallow="pedestrian tram rail_urban rail rail_electric rail_fast ship" speed="5.00" length="8.76" width="6.00" shape="530.43,1070.84 531.58,1068.40 532.96,1067.43 534.55,1067.95 536.37,1069.96">
            <param key="origId" value="3008_-1"/>
        </lane>
    </edge>
    <edge id=":110_2" function="internal">
        <lane id=":110_2_0" index="0" disallow="pedestrian tram rail_urban rail rail_electric rail_fast ship" speed="7.85" length="11.25" width="6.00" shape="541.58,1061.23 538.92,1062.50 537.16,1064.38 536.31,1066.86 536.37,1069.96">
            <param key="origId" value="3009_-1"/>
        </lane>
    </edge>
    <edge id=":110_3" function="internal">
        <lane id=":110_3_0" index="0" disallow="pedestrian tram rail_urban rail rail_electric rail_fast ship" speed="13.89" length="20.07" width="6.00" shape="539.81,1055.50 533.64,1057.91 529.04,1060.47 525.33,1062.75 521.86,1064.38">
            <param key="origId" value="3010_-1"/>
        </lane>
    </edge>
    <edge id=":111_0" function="internal">
        <lane id=":111_0_0" index="0" disallow="pedestrian tram rail_urban rail rail_electric rail_fast ship" speed="9.16" length="17.34" width="6.00" shape="417.22,875.83 415.83,870.39 413.66,866.63 410.71,864.55 406.96,864.15">
            <param key="origId" value="3273_-1"/>
        </lane>
    </edge>
    <edge id=":111_1" function="internal">
        <lane id=":111_1_0" index="0" disallow="pedestrian tram rail_urban rail rail_electric rail_fast ship" speed="11.33" length="28.79" width="6.00" shape="417.22,875.83 416.52,866.11 417.88,858.90 421.29,854.20 426.76,851.99">
            <param key="origId" value="3274_-1"/>
        </lane>
    </edge>
    <edge id=":111_2" function="internal">
        <lane id=":111_2_0" index="0" disallow="pedestrian tram rail_urban rail rail_electric rail_fast ship" speed="5.00" length="8.76" width="6.00" shape="417.22,875.83 418.35,873.37 419.71,872.40 421.31,872.90 423.14,874.89">
            <param key="origId" value="3275_-1"/>
        </lane>
    </edge>
    <edge id=":111_3" function="internal">
        <lane id=":111_3_0" index="0" disallow="pedestrian tram rail_urban rail rail_electric rail_fast ship" speed="8.25" length="15.08" width="6.00" shape="428.55,862.82 425.51,863.78 423.59,866.12 422.80,869.82 423.14,874.89">
            <param key="origId" value="3276_-1"/>
        </lane>
    </edge>
    <edge id=":111_4" function="internal">
        <lane id=":111_4_0" index="0" disallow="pedestrian tram rail_urban rail rail_electric rail_fast ship" speed="13.89" length="21.63" width="6.00" shape="428.55,862.82 406.96,864.15">
            <param key="origId" value="3277_-1"/>
        </lane>
    </edge>
    <edge id=":111_5" function="internal">
        <lane id=":111_5_0" index="0" disallow="pedestrian tram rail_urban rail rail_electric rail_fast ship" speed="6.29" length="10.71" width="6.00" shape="428.55,862.82 424.04,860.78 422.24,858.30 423.04,855.72">
            <param key="origId" value="3278_-1"/>
        </lane>
    </edge>
    <edge id=":111_10" function="internal">