<?xml version='1.0' encoding='UTF-8'?>
<!-- generated on 2022-05-05 15:46:36 by Eclipse SUMO netconvert Version 1.13.0
<configuration xmlns:xsi="http://www.w3.org/2001/XMLSchema-instance" xsi:noNamespaceSchemaLocation="http://sumo.dlr.de/xsd/netconvertConfiguration.xsd">

    <input>
        <type-files value="/home2/islam.ben.shaban/carla-simulator/Co-Simulation/Sumo/util/data/opendrive_netconvert.typ.xml"/>
        <opendrive-files value="map.xodr"/>
    </input>

    <output>
        <output-file value="/tmp/tmpbess0qzf/map.net.xml"/>
        <output.original-names value="true"/>
    </output>

    <processing>
        <geometry.remove value="true"/>
        <geometry.min-radius.fix value="true"/>
        <geometry.max-grade.fix value="false"/>
    </processing>

    <tls_building>
        <tls.discard-loaded value="true"/>
        <tls.left-green.time value="0"/>
    </tls_building>

    <junctions>
        <rectangular-lane-cut value="true"/>
    </junctions>

    <formats>
        <opendrive.import-all-lanes value="true"/>
        <opendrive.curve-resolution value="1"/>
    </formats>

    <report>
        <aggregate-warnings value="5"/>
    </report>

</configuration>
-->
<net xmlns:xsi="http://www.w3.org/2001/XMLSchema-instance" version="1.9" junctionCornerDetail="5" rectangularLaneCut="true" limitTurnSpeed="5.50" xsi:noNamespaceSchemaLocation="http://sumo.dlr.de/xsd/net_file.xsd">
  <location netOffset="-858761.04,-5398347.61" convBoundary="0.00,0.00,1977.24,1373.86" origBoundary="0.000000,0.000000,0.000000,0.000000" projParameter="+proj=tmerc          "/>
  <type id="bidirectional" priority="1" speed="1.39" disallow="pedestrian tram rail_urban rail rail_electric rail_fast ship" width="3.65"/>
  <type id="biking" priority="-1" speed="5.56" allow="bicycle" width="1.50"/>
  <type id="border" priority="0" speed="1.39" disallow="all" discard="1" width="0.10"/>
  <type id="driving" priority="1" speed="13.89" disallow="pedestrian tram rail_urban rail rail_electric rail_fast ship" width="3.65"/>
  <type id="entry" priority="1" speed="22.22" disallow="pedestrian tram rail_urban rail rail_electric rail_fast ship" width="3.65"/>
  <type id="exit" priority="1" speed="22.22" disallow="pedestrian tram rail_urban rail rail_electric rail_fast ship" width="3.65"/>
  <type id="median" priority="0" speed="1.39" disallow="all" discard="1" width="0.10"/>
  <type id="mwyEntry" priority="1" speed="22.22" allow="private emergency authority army vip passenger hov taxi bus coach delivery truck trailer motorcycle evehicle custom1 custom2" width="3.65"/>
  <type id="mwyExit" priority="1" speed="22.22" allow="private emergency authority army vip passenger hov taxi bus coach delivery truck trailer motorcycle evehicle custom1 custom2" width="3.65"/>
  <type id="none" priority="0" speed="1.39" disallow="all" discard="1" width="1.00"/>
  <type id="offRamp" priority="1" speed="22.22" allow="private emergency authority army vip passenger hov taxi bus coach delivery truck trailer motorcycle evehicle custom1 custom2" width="3.65"/>
  <type id="onRamp" priority="1" speed="22.22" allow="private emergency authority army vip passenger hov taxi bus coach delivery truck trailer motorcycle evehicle custom1 custom2" width="3.65"/>
  <type id="parking" priority="1" speed="1.39" disallow="pedestrian tram rail_urban rail rail_electric rail_fast ship" width="2.50"/>
  <type id="rail" priority="3" speed="33.33" allow="rail_urban rail rail_electric rail_fast" width="3.65"/>
  <type id="restricted" priority="0" speed="13.89" disallow="all" width="3.65"/>
  <type id="roadWorks" priority="0" speed="1.39" allow="authority" width="3.65"/>
  <type id="shoulder" priority="0" speed="1.39" disallow="all" discard="1" width="1.00"/>
  <type id="sidewalk" priority="-2" speed="2.78" allow="pedestrian" width="2.50"/>
  <type id="special1" priority="1" speed="22.22" allow="custom1" discard="1" width="3.65"/>
  <type id="special2" priority="1" speed="22.22" allow="custom2" discard="1" width="3.65"/>
  <type id="special3" priority="1" speed="22.22" allow="custom1 custom2" discard="1" width="3.65"/>
  <type id="stop" priority="1" speed="13.89" disallow="pedestrian tram rail_urban rail rail_electric rail_fast ship" width="3.65"/>
  <type id="tram" priority="2" speed="13.89" allow="tram" width="3.65"/>
  <edge id=":1_0" function="internal">
    <lane id=":1_0_0" index="0" disallow="pedestrian tram rail_urban rail rail_electric rail_fast ship" speed="7.51" length="11.57" width="6.00" shape="1441.94,1052.70 1440.73,1049.69 1438.90,1047.80 1436.44,1047.02 1433.35,1047.37">
      <param key="origId" value="2919_-1"/>
    </lane>
  </edge>
  <edge id=":1_1" function="internal">
    <lane id=":1_1_0" index="0" disallow="pedestrian tram rail_urban rail rail_electric rail_fast ship" speed="13.89" length="21.13" width="6.00" shape="1441.94,1052.70 1441.38,1048.06 1441.29,1042.21 1441.38,1036.33 1441.34,1031.61">
      <param key="origId" value="2920_-1"/>
    </lane>
  </edge>
  <edge id=":1_2" function="internal">
    <lane id=":1_2_0" index="0" disallow="pedestrian tram rail_urban rail rail_electric rail_fast ship" speed="5.00" length="8.76" width="6.00" shape="1441.94,1052.70 1442.85,1050.15 1444.12,1049.06 1445.76,1049.42 1447.76,1051.24">
      <param key="origId" value="2921_-1"/>
    </lane>
  </edge>
  <edge id=":1_3" function="internal">
    <lane id=":1_3_0" index="0" disallow="pedestrian tram rail_urban rail rail_electric rail_fast ship" speed="7.47" length="11.31" width="6.00" shape="1452.88,1042.74 1450.00,1043.91 1448.19,1045.72 1447.44,1048.16 1447.76,1051.24">
      <param key="origId" value="2922_-1"/>
    </lane>
  </edge>
  <edge id=":1_4" function="internal">
    <lane id=":1_4_0" index="0" disallow="pedestrian tram rail_urban rail rail_electric rail_fast ship" speed="8.33" length="20.08" width="6.00" shape="1452.88,1042.74 1433.35,1047.37">
      <param key="origId" value="2923_-1"/>
    </lane>
  </edge>
  <edge id=":1_5" function="internal">
    <lane id=":1_5_0" index="0" disallow="pedestrian tram rail_urban rail rail_electric rail_fast ship" speed="7.62" length="7.81" width="6.00" shape="1451.43,1036.92 1447.18,1037.50 1444.08,1036.80 1443.84,1036.55">
      <param key="origId" value="2924_-1"/>
    </lane>
  </edge>
  <edge id=":1_9" function="internal">
    <lane id=":1_9_0" index="0" disallow="pedestrian tram rail_urban rail rail_electric rail_fast ship" speed="7.62" length="5.74" width="6.00" shape="1443.84,1036.55 1442.13,1034.84 1441.34,1031.61">
      <param key="origId" value="2924_-1"/>
    </lane>
  </edge>
  <edge id=":1_6" function="internal">
    <lane id=":1_6_0" index="0" disallow="pedestrian tram rail_urban rail rail_electric rail_fast ship" speed="9.11" length="15.04" width="6.00" shape="1431.80,1041.57 1436.13,1039.95 1439.16,1037.75 1440.90,1034.97 1441.34,1031.61">
      <param key="origId" value="2925_-1"/>
    </lane>
  </edge>
  <edge id=":1_7" function="internal">
    <lane id=":1_7_0" index="0" disallow="pedestrian tram rail_urban rail rail_electric rail_fast ship" speed="9.85" length="8.48" width="6.00" shape="1431.80,1041.57 1437.56,1040.91 1440.13,1041.69">
      <param key="origId" value="2926_-1"/>
    </lane>
  </edge>
  <edge id=":1_8" function="internal">
    <lane id=":1_8_0" index="0" disallow="pedestrian tram rail_urban rail rail_electric rail_fast ship" speed="5.00" length="3.51" width="6.00" shape="1431.80,1041.57 1434.36,1042.44 1434.90,1043.05">
      <param key="origId" value="2927_-1"/>
    </lane>
  </edge>
  <edge id=":1_10" function="internal">
    <lane id=":1_10_0" index="0" disallow="pedestrian tram rail_urban rail rail_electric rail_fast ship" speed="9.85" length="12.87" width="6.00" shape="1440.13,1041.69 1442.14,1042.30 1445.54,1045.74 1447.76,1051.24">
      <param key="origId" value="2926_-1"/>
    </lane>
  </edge>
  <edge id=":1_11" function="internal">
    <lane id=":1_11_0" index="0" disallow="pedestrian tram rail_urban rail rail_electric rail_fast ship" speed="5.00" length="5.25" width="6.00" shape="1434.90,1043.05 1435.47,1043.70 1435.13,1045.34 1433.35,1047.37">
      <param key="origId" value="2927_-1"/>
    </lane>
  </edge>
  <edge id=":10_0" function="internal">
    <lane id=":10_0_0" index="0" disallow="pedestrian tram rail_urban rail rail_electric rail_fast ship" speed="7.33" length="11.41" width="6.00" shape="1840.49,714.69 1837.58,715.91 1835.83,717.76 1835.23,720.24 1835.79,723.34">
      <param key="origId" value="3245_-1"/>
    </lane>
  </edge>
  <edge id=":10_1" function="internal">
    <lane id=":10_1_0" index="0" disallow="pedestrian tram rail_urban rail rail_electric rail_fast ship" speed="8.33" length="14.07" width="6.00" shape="1840.49,714.69 1826.91,718.35">
      <param key="origId" value="3246_-1"/>
    </lane>
  </edge>
  <edge id=":10_2" function="internal">
    <lane id=":10_2_0" index="0" disallow="pedestrian tram rail_urban rail rail_electric rail_fast ship" speed="8.33" length="14.20" width="6.00" shape="1825.28,712.58 1838.99,708.88">
      <param key="origId" value="3247_-1"/>
    </lane>
  </edge>
  <edge id=":10_3" function="internal">
    <lane id=":10_3_0" index="0" disallow="pedestrian tram rail_urban rail rail_electric rail_fast ship" speed="8.33" length="4.66" width="6.00" shape="1825.28,712.58 1828.31,712.58 1829.67,713.47">
      <param key="origId" value="3248_-1"/>
    </lane>
  </edge>
  <edge id=":10_4" function="internal">
    <lane id=":10_4_0" index="0" disallow="pedestrian tram rail_urban rail rail_electric rail_fast ship" speed="5.00" length="3.48" width="6.00" shape="1825.28,712.58 1827.85,713.41 1828.37,713.98">
      <param key="origId" value="3249_-1"/>
    </lane>
  </edge>
  <edge id=":10_5" function="internal">
    <lane id=":10_5_0" index="0" disallow="pedestrian tram rail_urban rail rail_electric rail_fast ship" speed="8.33" length="11.86" width="6.00" shape="1829.67,713.47 1831.07,714.38 1833.56,717.96 1835.79,723.34">
      <param key="origId" value="3248_-1"/>
    </lane>
  </edge>
  <edge id=":10_6" function="internal">
    <lane id=":10_6_0" index="0" disallow="pedestrian tram rail_urban rail rail_electric rail_fast ship" speed="5.00" length="5.28" width="6.00" shape="1828.37,713.98 1828.98,714.65 1828.67,716.30 1826.91,718.35">
      <param key="origId" value="3249_-1"/>
    </lane>
  </edge>
  <edge id=":100_0" function="internal">
    <lane id=":100_0_0" index="0" disallow="pedestrian tram rail_urban rail rail_electric rail_fast ship" speed="8.11" length="13.70" width="6.00" shape="1118.13,473.93 1115.02,474.24 1112.66,475.87 1111.05,478.82 1110.19,483.08">
      <param key="origId" value="3015_-1"/>
    </lane>
  </edge>
  <edge id=":100_1" function="internal">
    <lane id=":100_1_0" index="0" disallow="pedestrian tram rail_urban rail rail_electric rail_fast ship" speed="8.33" length="20.16" width="6.00" shape="1118.13,473.93 1113.58,473.93 1108.06,474.38 1102.54,474.81 1098.00,474.77">
      <param key="origId" value="3016_-1"/>
    </lane>
  </edge>
  <edge id=":100_2" function="internal">
    <lane id=":100_2_0" index="0" disallow="pedestrian tram rail_urban rail rail_electric rail_fast ship" speed="8.33" length="6.44" width="6.00" shape="1098.70,468.81 1104.20,470.26 1104.79,470.72">
      <param key="origId" value="3017_-1"/>
    </lane>
  </edge>
  <edge id=":100_4" function="internal">
    <lane id=":100_4_0" index="0" disallow="pedestrian tram rail_urban rail rail_electric rail_fast ship" speed="8.33" length="14.37" width="6.00" shape="1104.79,470.72 1107.95,473.12 1109.94,477.40 1110.19,483.08">
      <param key="origId" value="3017_-1"/>
    </lane>
  </edge>
  <edge id=":100_3" function="internal">
    <lane id=":100_3_0" index="0" disallow="pedestrian tram rail_urban rail rail_electric rail_fast ship" speed="7.50" length="11.26" width="6.00" shape="1104.22,482.49 1104.09,479.42 1103.01,477.10 1100.98,475.56 1098.00,474.77">
      <param key="origId" value="3018_-1"/>
    </lane>
  </edge>
  <edge id=":101_0" function="internal">
    <lane id=":101_0_0" index="0" disallow="pedestrian tram rail_urban rail rail_electric rail_fast ship" speed="7.93" length="1.08" width="6.00" shape="1021.57,465.84 1020.59,465.39">
      <param key="origId" value="2912_-1"/>
    </lane>
  </edge>
  <edge id=":101_3" function="internal">
    <lane id=":101_3_0" index="0" disallow="pedestrian tram rail_urban rail rail_electric rail_fast ship" speed="7.93" length="11.42" width="6.00" shape="1020.59,465.39 1019.66,464.96 1018.39,462.86 1017.76,459.54 1017.77,454.98">
      <param key="origId" value="2912_-1"/>
    </lane>
  </edge>
  <edge id=":101_1" function="internal">
    <lane id=":101_1_0" index="0" disallow="pedestrian tram rail_urban rail rail_electric rail_fast ship" speed="8.33" length="14.92" width="6.00" shape="1016.61,469.86 1017.77,454.98">
      <param key="origId" value="2913_-1"/>
    </lane>
  </edge>
  <edge id=":101_2" function="internal">
    <lane id=":101_2_0" index="0" disallow="pedestrian tram rail_urban rail rail_electric rail_fast ship" speed="7.77" length="12.63" width="6.00" shape="1016.61,469.86 1017.33,465.29 1018.51,462.10 1020.16,460.29 1022.27,459.88">
      <param key="origId" value="2914_-1"/>
    </lane>
  </edge>
  <edge id=":102_0" function="internal">
    <lane id=":102_0_0" index="0" disallow="pedestrian tram rail_urban rail rail_electric rail_fast ship" speed="5.00" length="8.76" width="6.00" shape="785.52,1220.80 783.38,1222.46 781.72,1222.69 780.54,1221.50 779.84,1218.89">
      <param key="origId" value="2775_-1"/>
    </lane>
  </edge>
  <edge id=":103_0" function="internal">
    <lane id=":103_0_0" index="0" disallow="pedestrian tram rail_urban rail rail_electric rail_fast ship" speed="5.00" length="8.76" width="6.00" shape="205.70,104.20 203.48,102.65 202.76,101.13 203.55,99.65 205.83,98.20">
      <param key="origId" value="2686_-1"/>
    </lane>
  </edge>
  <edge id=":104_0" function="internal">
    <lane id=":104_0_0" index="0" disallow="pedestrian tram rail_urban rail rail_electric rail_fast ship" speed="13.89" length="47.61" width="6.00" shape="286.15,91.70 279.45,96.15 268.75,104.85 257.49,114.43 249.10,121.53">
      <param key="origId" value="2984_-1"/>
    </lane>
  </edge>
  <edge id=":104_1" function="internal">
    <lane id=":104_1_0" index="0" disallow="pedestrian tram rail_urban rail rail_electric rail_fast ship" speed="13.89" length="51.16" width="6.00" shape="286.15,91.70 277.98,95.07 263.86,100.99 248.77,106.77 237.66,109.73">
      <param key="origId" value="2985_-1"/>
    </lane>
    <lane id=":104_1_1" index="1" disallow="pedestrian tram rail_urban rail rail_electric rail_fast ship" speed="13.89" length="51.16" width="6.00" shape="286.15,91.70 277.89,94.14 263.60,98.00 248.33,101.72 237.13,103.75">
      <param key="origId" value="2986_-1"/>
    </lane>
  </edge>
  <edge id=":104_3" function="internal">
    <lane id=":104_3_0" index="0" disallow="pedestrian tram rail_urban rail rail_electric rail_fast ship" speed="13.89" length="48.39" width="6.00" shape="236.07,91.80 246.16,90.09 259.36,86.95 272.47,83.36 282.29,80.34">
      <param key="origId" value="2987_-2"/>
    </lane>
    <lane id=":104_3_1" index="1" disallow="pedestrian tram rail_urban rail rail_electric rail_fast ship" speed="13.89" length="48.39" width="6.00" shape="236.59,97.78 246.90,96.03 260.59,92.78 274.18,89.09 284.22,86.02">
      <param key="origId" value="2987_-1"/>
    </lane>
  </edge>
  <edge id=":104_5" function="internal">
    <lane id=":104_5_0" index="0" disallow="pedestrian tram rail_urban rail rail_electric rail_fast ship" speed="8.75" length="5.79" width="6.00" shape="236.59,97.78 242.27,98.92">
      <param key="origId" value="2988_-1"/>
    </lane>
  </edge>
  <edge id=":104_6" function="internal">
    <lane id=":104_6_0" index="0" disallow="pedestrian tram rail_urban rail rail_electric rail_fast ship" speed="5.00" length="3.25" width="6.00" shape="236.59,97.78 238.96,99.07 239.25,99.53">
      <param key="origId" value="2989_-1"/>
    </lane>
  </edge>
  <edge id=":104_7" function="internal">
    <lane id=":104_7_0" index="0" disallow="pedestrian tram rail_urban rail rail_electric rail_fast ship" speed="8.75" length="22.54" width="6.00" shape="242.27,98.92 244.12,99.30 248.69,104.18 249.39,110.64 245.30,116.88">
      <param key="origId" value="2988_-1"/>
    </lane>
  </edge>
  <edge id=":104_8" function="internal">
    <lane id=":104_8_0" index="0" disallow="pedestrian tram rail_urban rail rail_electric rail_fast ship" speed="5.00" length="5.51" width="6.00" shape="239.25,99.53 239.85,100.50 239.24,102.06 237.13,103.75">
      <param key="origId" value="2989_-1"/>
    </lane>
  </edge>
  <edge id=":105_0" function="internal">
    <lane id=":105_0_0" index="0" disallow="pedestrian tram rail_urban rail rail_electric rail_fast ship" speed="7.45" length="11.30" width="6.00" shape="329.86,297.40 326.76,297.43 324.42,298.45 322.84,300.45 322.02,303.44">
      <param key="origId" value="3043_-1"/>
    </lane>
  </edge>
  <edge id=":105_1" function="internal">
    <lane id=":105_1_0" index="0" disallow="pedestrian tram rail_urban rail rail_electric rail_fast ship" speed="11.11" length="21.07" width="6.00" shape="329.86,297.40 323.40,295.59 318.48,292.84 314.50,290.20 310.84,288.73">
      <param key="origId" value="3044_-1"/>
    </lane>
  </edge>
  <edge id=":105_2" function="internal">
    <lane id=":105_2_0" index="0" disallow="pedestrian tram rail_urban rail rail_electric rail_fast ship" speed="5.00" length="3.47" width="6.00" shape="330.64,291.45 328.60,289.67 328.35,288.95">
      <param key="origId" value="3045_-1"/>
    </lane>
  </edge>
  <edge id=":105_12" function="internal">
    <lane id=":105_12_0" index="0" disallow="pedestrian tram rail_urban rail rail_electric rail_fast ship" speed="5.00" length="5.30" width="6.00" shape="328.35,288.95 328.05,288.08 328.99,286.69 331.42,285.50">
      <param key="origId" value="3045_-1"/>
    </lane>
  </edge>
  <edge id=":105_3" function="internal">
    <lane id=":105_3_0" index="0" disallow="pedestrian tram rail_urban rail rail_electric rail_fast ship" speed="8.15" length="13.83" width="6.00" shape="323.15,271.30 323.38,274.42 324.96,276.83 327.90,278.54 332.20,279.55">
      <param key="origId" value="3046_-1"/>
    </lane>
  </edge>
  <edge id=":105_4" function="internal">
    <lane id=":105_4_0" index="0" disallow="pedestrian tram rail_urban rail rail_electric rail_fast ship" speed="11.11" length="32.16" width="6.00" shape="323.15,271.30 322.79,277.72 322.58,287.37 322.37,297.02 322.02,303.44">
      <param key="origId" value="3047_-1"/>
    </lane>
  </edge>
  <edge id=":105_5" function="internal">
    <lane id=":105_5_0" index="0" disallow="pedestrian tram rail_urban rail rail_electric rail_fast ship" speed="10.35" length="23.73" width="6.00" shape="323.15,271.30 321.45,279.46 318.84,285.08 315.30,288.17 310.84,288.73">
      <param key="origId" value="3048_-1"/>
    </lane>
  </edge>
  <edge id=":105_6" function="internal">
    <lane id=":105_6_0" index="0" disallow="pedestrian tram rail_urban rail rail_electric rail_fast ship" speed="11.11" length="19.92" width="6.00" shape="311.68,282.79 331.42,285.50">
      <param key="origId" value="3049_-1"/>
    </lane>
  </edge>
  <edge id=":105_7" function="internal">
    <lane id=":105_7_0" index="0" disallow="pedestrian tram rail_urban rail rail_electric rail_fast ship" speed="10.89" length="11.54" width="6.00" shape="311.68,282.79 317.11,284.77 320.64,288.86 320.73,289.21">
      <param key="origId" value="3050_-1"/>
    </lane>
  </edge>
  <edge id=":105_8" function="internal">
    <lane id=":105_8_0" index="0" disallow="pedestrian tram rail_urban rail rail_electric rail_fast ship" speed="5.00" length="3.85" width="6.00" shape="311.68,282.79 313.70,284.60 314.06,285.68">
      <param key="origId" value="3051_-1"/>
    </lane>
  </edge>
  <edge id=":105_13" function="internal">
    <lane id=":105_13_0" index="0" disallow="pedestrian tram rail_urban rail rail_electric rail_fast ship" speed="10.89" length="14.43" width="6.00" shape="320.73,289.21 322.27,295.09 322.02,303.44">
      <param key="origId" value="3050_-1"/>
    </lane>
  </edge>
  <edge id=":105_14" function="internal">
    <lane id=":105_14_0" index="0" disallow="pedestrian tram rail_urban rail rail_electric rail_fast ship" speed="5.00" length="4.91" width="6.00" shape="314.06,285.68 314.23,286.19 313.28,287.57 310.84,288.73">
      <param key="origId" value="3051_-1"/>
    </lane>
  </edge>
  <edge id=":105_9" function="internal">
    <lane id=":105_9_0" index="0" disallow="pedestrian tram rail_urban rail rail_electric rail_fast ship" speed="8.86" length="16.51" width="6.00" shape="316.07,302.68 316.36,296.95 315.59,292.71 313.74,289.97 310.84,288.73">
      <param key="origId" value="3052_-1"/>
    </lane>
  </edge>
  <edge id=":105_10" function="internal">
    <lane id=":105_10_0" index="0" disallow="pedestrian tram rail_urban rail rail_electric rail_fast ship" speed="10.83" length="26.03" width="6.00" shape="316.07,302.68 317.93,294.53 321.11,288.94 325.61,285.94 331.42,285.50">
      <param key="origId" value="3053_-1"/>
    </lane>
  </edge>
  <edge id=":105_11" function="internal">
    <lane id=":105_11_0" index="0" disallow="pedestrian tram rail_urban rail rail_electric rail_fast ship" speed="5.00" length="8.76" width="6.00" shape="316.07,302.68 317.84,300.64 319.42,300.08 320.82,301.02 322.02,303.44">
      <param key="origId" value="3054_-1"/>
    </lane>
  </edge>
  <edge id=":106_0" function="internal">
    <lane id=":106_0_0" index="0" disallow="pedestrian tram rail_urban rail rail_electric rail_fast ship" speed="8.33" length="19.64" width="6.00" shape="1043.48,261.01 1024.05,258.17">
      <param key="origId" value="3091_-1"/>
    </lane>
  </edge>
  <edge id=":106_1" function="internal">
    <lane id=":106_1_0" index="0" disallow="pedestrian tram rail_urban rail rail_electric rail_fast ship" speed="8.33" length="16.39" width="6.00" shape="1043.48,261.01 1038.06,259.78 1034.25,257.90 1032.07,255.36 1031.51,252.18">
      <param key="origId" value="3092_-1"/>
    </lane>
  </edge>
  <edge id=":106_2" function="internal">
    <lane id=":106_2_0" index="0" disallow="pedestrian tram rail_urban rail rail_electric rail_fast ship" speed="8.33" length="4.16" width="6.00" shape="1037.49,252.60 1036.45,255.75 1035.78,256.27">
      <param key="origId" value="3093_-1"/>
    </lane>
  </edge>
  <edge id=":106_3" function="internal">
    <lane id=":106_3_0" index="0" disallow="pedestrian tram rail_urban rail rail_electric rail_fast ship" speed="5.00" length="3.16" width="6.00" shape="1037.49,252.60 1035.84,254.74 1035.41,254.92">
      <param key="origId" value="3094_-1"/>
    </lane>
  </edge>
  <edge id=":106_6" function="internal">
    <lane id=":106_6_0" index="0" disallow="pedestrian tram rail_urban rail rail_electric rail_fast ship" speed="8.33" length="12.31" width="6.00" shape="1035.78,256.27 1033.87,257.73 1029.73,258.53 1024.05,258.17">
      <param key="origId" value="3093_-1"/>
    </lane>
  </edge>
  <edge id=":106_7" function="internal">
    <lane id=":106_7_0" index="0" disallow="pedestrian tram rail_urban rail rail_electric rail_fast ship" speed="5.00" length="5.60" width="6.00" shape="1035.41,254.92 1034.29,255.38 1032.85,254.53 1031.51,252.18">
      <param key="origId" value="3094_-1"/>
    </lane>
  </edge>
  <edge id=":106_4" function="internal">
    <lane id=":106_4_0" index="0" disallow="pedestrian tram rail_urban rail rail_electric rail_fast ship" speed="8.33" length="13.98" width="6.00" shape="1033.33,266.55 1032.99,263.43 1031.34,260.99 1028.35,259.24 1024.05,258.17">
      <param key="origId" value="3095_-1"/>
    </lane>
  </edge>
  <edge id=":106_5" function="internal">
    <lane id=":106_5_0" index="0" disallow="pedestrian tram rail_urban rail rail_electric rail_fast ship" speed="8.33" length="14.54" width="6.00" shape="1033.33,266.55 1033.19,262.91 1032.46,259.37 1031.71,255.83 1031.51,252.18">
      <param key="origId" value="3096_-1"/>
    </lane>
  </edge>
  <edge id=":107_0" function="internal">
    <lane id=":107_0_0" index="0" disallow="pedestrian tram rail_urban rail rail_electric rail_fast ship" speed="5.00" length="8.76" width="6.00" shape="1051.21,0.77 1052.97,-1.29 1054.55,-1.86 1055.95,-0.94 1057.17,1.47">
      <param key="origId" value="3160_-1"/>
    </lane>
  </edge>
  <edge id=":108_0" function="internal">
    <lane id=":108_0_0" index="0" disallow="pedestrian tram rail_urban rail rail_electric rail_fast ship" speed="13.89" length="9.26" width="6.00" shape="235.95,278.02 233.20,278.58 231.58,280.43 229.97,282.29 227.21,282.85">
      <param key="origId" value="3194_-1"/>
    </lane>
    <lane id=":108_0_1" index="1" disallow="pedestrian tram rail_urban rail rail_electric rail_fast ship" speed="13.89" length="9.26" width="6.00" shape="235.95,278.02 228.04,276.91">
      <param key="origId" value="3195_-1"/>
    </lane>
  </edge>
  <edge id=":108_2" function="internal">
    <lane id=":108_2_0" index="0" disallow="pedestrian tram rail_urban rail rail_electric rail_fast ship" speed="13.89" length="10.57" width="6.00" shape="229.69,265.02 232.20,266.32 233.25,268.55 234.30,270.78 236.80,272.08">
      <param key="origId" value="3196_-1"/>
    </lane>
  </edge>
  <edge id=":109_0" function="internal">
    <lane id=":109_0_0" index="0" disallow="pedestrian tram rail_urban rail rail_electric rail_fast ship" speed="5.00" length="8.76" width="6.00" shape="556.46,1279.64 555.49,1282.17 554.19,1283.23 552.56,1282.82 550.61,1280.96">
      <param key="origId" value="3023_-1"/>
    </lane>
  </edge>
  <edge id=":11_0" function="internal">
    <lane id=":11_0_0" index="0" disallow="pedestrian tram rail_urban rail rail_electric rail_fast ship" speed="5.00" length="8.76" width="6.00" shape="1885.13,696.95 1887.68,697.84 1888.79,699.11 1888.44,700.75 1886.63,702.76"/>
  </edge>
  <edge id=":110_0" function="internal">
    <lane id=":110_0_0" index="0" disallow="pedestrian tram rail_urban rail rail_electric rail_fast ship" speed="7.46" length="12.75" width="6.00" shape="530.43,1070.85 529.40,1067.13 527.63,1064.81 525.11,1063.89 521.86,1064.38">
      <param key="origId" value="3007_-1"/>
    </lane>
  </edge>
  <edge id=":110_1" function="internal">
    <lane id=":110_1_0" index="0" disallow="pedestrian tram rail_urban rail rail_electric rail_fast ship" speed="5.00" length="8.76" width="6.00" shape="530.43,1070.85 531.58,1068.40 532.96,1067.44 534.55,1067.95 536.37,1069.96">
      <param key="origId" value="3008_-1"/>
    </lane>
  </edge>
  <edge id=":110_2" function="internal">
    <lane id=":110_2_0" index="0" disallow="pedestrian tram rail_urban rail rail_electric rail_fast ship" speed="7.86" length="11.25" width="6.00" shape="541.58,1061.23 538.92,1062.50 537.16,1064.38 536.31,1066.86 536.37,1069.96">
      <param key="origId" value="3009_-1"/>
    </lane>
  </edge>
  <edge id=":110_3" function="internal">
    <lane id=":110_3_0" index="0" disallow="pedestrian tram rail_urban rail rail_electric rail_fast ship" speed="13.89" length="20.07" width="6.00" shape="539.81,1055.50 533.64,1057.92 529.03,1060.47 525.33,1062.75 521.86,1064.38">
      <param key="origId" value="3010_-1"/>
    </lane>
  </edge>
  <edge id=":111_0" function="internal">
    <lane id=":111_0_0" index="0" disallow="pedestrian tram rail_urban rail rail_electric rail_fast ship" speed="9.16" length="17.33" width="6.00" shape="417.21,875.83 415.83,870.39 413.66,866.63 410.70,864.55 406.96,864.16">
      <param key="origId" value="3273_-1"/>
    </lane>
  </edge>
  <edge id=":111_1" function="internal">
    <lane id=":111_1_0" index="0" disallow="pedestrian tram rail_urban rail rail_electric rail_fast ship" speed="11.32" length="28.80" width="6.00" shape="417.21,875.83 416.51,866.11 417.87,858.90 421.28,854.19 426.76,851.99">
      <param key="origId" value="3274_-1"/>
    </lane>
  </edge>
  <edge id=":111_2" function="internal">
    <lane id=":111_2_0" index="0" disallow="pedestrian tram rail_urban rail rail_electric rail_fast ship" speed="5.00" length="8.76" width="6.00" shape="417.21,875.83 418.34,873.37 419.71,872.40 421.31,872.91 423.14,874.90">
      <param key="origId" value="3275_-1"/>
    </lane>
  </edge>
  <edge id=":111_3" function="internal">
    <lane id=":111_3_0" index="0" disallow="pedestrian tram rail_urban rail rail_electric rail_fast ship" speed="8.24" length="15.12" width="6.00" shape="428.56,862.81 425.50,863.76 423.58,866.09 422.79,869.81 423.14,874.90">
      <param key="origId" value="3276_-1"/>
    </lane>
  </edge>
  <edge id=":111_4" function="internal">
    <lane id=":111_4_0" index="0" disallow="pedestrian tram rail_urban rail rail_electric rail_fast ship" speed="13.89" length="21.64" width="6.00" shape="428.56,862.81 406.96,864.16">
      <param key="origId" value="3277_-1"/>
    </lane>
  </edge>
  <edge id=":111_5" function="internal">
    <lane id=":111_5_0" index="0" disallow="pedestrian tram rail_urban rail rail_electric rail_fast ship" speed="6.30" length="10.02" width="6.00" shape="428.56,862.81 424.05,860.78 422.25,858.30 422.84,856.38">
      <param key="origId" value="3278_-1"/>
    </lane>
  </edge>
  <edge id=":111_10" function="internal">
    <lane id=":111_10_0" index="0" disallow="pedestrian tram rail_urban rail rail_electric rail_fast ship" speed="6.30" length="6.00" width="6.00" shape="422.84,856.38 423.15,855.37 426.76,851.99">
      <param key="origId" value="3278_-1"/>
    </lane>
  </edge>
  <edge id=":111_6" function="internal">
    <lane id=":111_6_0" index="0" disallow="pedestrian tram rail_urban rail rail_electric rail_fast ship" speed="13.89" length="20.61" width="6.00" shape="405.58,849.78 425.89,846.05">
      <param key="origId" value="3279_-2"/>
    </lane>