<?xml version="1.0" encoding="UTF-8"?>

<!-- generated on 2022-05-05 16:27:33 by Eclipse SUMO netedit Version 1.13.0
-->

<routes xmlns:xsi="http://www.w3.org/2001/XMLSchema-instance" xsi:noNamespaceSchemaLocation="http://sumo.dlr.de/xsd/routes_file.xsd">
    <!-- VTypes -->
    <vType id="CarA" length="5.00" minGap="2.50" maxSpeed="50.00" carFollowModel="IDM" accel="6.0" decel="6.0" tau="1.0"/>
    <vType id="CarB" length="7.50" minGap="2.50" maxSpeed="50.00" carFollowModel="IDM" accel="2.0" decel="6.0" tau="1.0"/>
    <vType id="CarC" length="5.00" minGap="2.50" maxSpeed="30.00" carFollowModel="IDM" accel="2.0" decel="5.0" tau="1.0"/>
    <vType id="CarD" length="7.50" minGap="2.50" maxSpeed="20.00" carFollowModel="IDM" accel="1.0" decel="5.0" tau="1.0"/>
    <!-- Routes -->
    <route id="route_0" edges="-2327 -2302 -2299 -2301 -2291 -2290 -2289 -2261 -2513 -2383 -2384 -2403 -2411 -2576 -2577 -2548 -2450" color="yellow"/>
    <route id="route_1" edges="-2394 -2395 -2638 -2639 -2508 -2380 -2434 -2635 -2506 -2643 -2644 -2470 -2385 -2509 -2510 -2511 -2537 -2538 -2539 -2586 -2597 -2598 -2572 -2475" color="green"/>
    <!-- Vehicles, persons and containers (sorted by depart) -->
    <vehicle id="vehicle_0" type="CarA" depart="0.00" departLane="first" color="blue" route="route_1"/>
    <vehicle id="vehicle_1" type="CarC" depart="0.00" departLane="free" color="red" route="route_1"/>
    <vehicle id="vehicle_2" type="CarD" depart="0.00" departLane="first" departPos="free" color="green" route="route_1"/>
    <vehicle id="vehicle_3" type="CarA" depart="0.00" departLane="first" color="blue" route="route_0"/>
    <vehicle id="vehicle_4" type="CarC" depart="0.00" departLane="free" color="red" route="route_0"/>
    <vehicle id="vehicle_5" type="CarD" depart="0.00" departLane="first" departPos="free" color="green" route="route_0"/>
</routes>
